10
Sample molecular structure for publication 21
C    0.000    0.000    0.000
C    1.400    0.000    0.000
C    2.100    1.216    0.000
C    1.400    2.433    0.000
C    0.000    2.433    0.000
C   -0.700    1.216    0.000
H   -0.544   -0.940    0.000
H    1.944   -0.940    0.000
H    3.144    1.216    0.000
H    1.944    3.373    0.000